Version 4
SHEET 1 948 680
WIRE -192 -352 -240 -352
WIRE -144 -352 -192 -352
WIRE 48 -352 -64 -352
WIRE -240 -336 -240 -352
WIRE -80 -288 -96 -288
WIRE -96 -272 -96 -288
WIRE -240 -256 -240 -272
WIRE -192 -224 -192 -352
WIRE -128 -224 -192 -224
WIRE 48 -192 48 -352
WIRE 48 -192 16 -192
WIRE 80 -192 48 -192
WIRE -656 -160 -672 -160
WIRE -576 -160 -592 -160
WIRE -192 -160 -240 -160
WIRE -128 -160 -192 -160
WIRE -240 -144 -240 -160
WIRE -672 -128 -672 -160
WIRE -592 -128 -592 -160
WIRE -96 -96 -96 -112
WIRE -96 -96 -112 -96
WIRE -48 -80 -48 -112
WIRE -240 -48 -240 -64
WIRE -192 -16 -192 -160
WIRE -144 -16 -192 -16
WIRE 48 -16 48 -192
WIRE 48 -16 -64 -16
FLAG -672 -48 0
FLAG -592 -48 0
FLAG -656 -160 V-
FLAG -576 -160 V+
FLAG -240 -256 0
FLAG -80 -288 V+
FLAG -48 -80 0
FLAG 80 -192 OUT
FLAG -112 -96 V-
FLAG -240 -48 0
SYMBOL voltage -592 -144 R0
WINDOW 123 0 0 Left 2
WINDOW 39 0 0 Left 2
SYMATTR InstName V1
SYMATTR Value 5
SYMBOL voltage -672 -32 R180
WINDOW 123 0 0 Left 2
WINDOW 39 0 0 Left 2
SYMATTR InstName V2
SYMATTR Value 5
SYMBOL cap -224 -272 R180
WINDOW 0 24 56 Left 2
WINDOW 3 24 8 Left 2
SYMATTR InstName C1
SYMATTR Value 40n
SYMBOL res -48 -336 M270
WINDOW 0 32 56 VTop 2
WINDOW 3 0 56 VBottom 2
SYMATTR InstName R1
SYMATTR Value {RF}
SYMBOL res -48 -32 R90
WINDOW 0 0 56 VBottom 2
WINDOW 3 32 56 VTop 2
SYMATTR InstName R2
SYMATTR Value 100k
SYMBOL res -224 -48 R180
WINDOW 0 36 76 Left 2
WINDOW 3 36 40 Left 2
SYMATTR InstName R3
SYMATTR Value 100k
SYMBOL Opamps\\LT6236 -96 -192 R0
SYMATTR InstName U1
TEXT -728 -328 Left 2 !.tran 20ms\n.step param RF list 400 200k
TEXT -680 0 Left 2 ;Power Supplies
TEXT -576 -256 Left 2 ;SPICE Directives
TEXT -176 56 Left 2 ;Variable Relaxation Oscillator
RECTANGLE Normal -496 16 -752 -208 2
RECTANGLE Normal -384 -240 -752 -368 2
RECTANGLE Normal 176 80 -816 -416 2
