Version 4
SHEET 1 2092 680
WIRE 1568 -784 1552 -784
WIRE 1552 -768 1552 -784
WIRE 1520 -720 1504 -720
WIRE 80 -704 80 -768
WIRE 176 -704 176 -768
WIRE 864 -688 704 -688
WIRE 1696 -688 1664 -688
WIRE 1712 -688 1696 -688
WIRE 1520 -656 1504 -656
WIRE 768 -592 752 -592
WIRE 80 -576 80 -624
WIRE 176 -576 176 -624
WIRE 1056 -576 1040 -576
WIRE 1552 -576 1552 -608
WIRE 1568 -576 1552 -576
WIRE 448 -560 416 -560
WIRE 640 -560 640 -688
WIRE 640 -560 528 -560
WIRE 672 -560 640 -560
WIRE 752 -560 752 -592
WIRE 672 -544 672 -560
WIRE 720 -544 672 -544
WIRE 1040 -544 1040 -576
WIRE 864 -528 864 -688
WIRE 864 -528 784 -528
WIRE 1008 -528 864 -528
WIRE 416 -512 416 -560
WIRE 416 -512 384 -512
WIRE 720 -512 672 -512
WIRE 1168 -512 1072 -512
WIRE 1184 -512 1168 -512
WIRE 1392 -512 1392 -720
WIRE 1504 -512 1504 -656
WIRE 1504 -512 1392 -512
WIRE 1568 -512 1504 -512
WIRE 1696 -512 1696 -688
WIRE 1696 -512 1648 -512
WIRE 672 -496 672 -512
WIRE 672 -496 544 -496
WIRE 912 -496 912 -640
WIRE 1008 -496 912 -496
WIRE 752 -480 752 -496
WIRE 1392 -480 1392 -512
WIRE 416 -464 416 -512
WIRE 448 -464 416 -464
WIRE 544 -464 544 -496
WIRE 544 -464 528 -464
WIRE 1040 -464 1040 -480
WIRE 544 -448 544 -464
WIRE 640 -448 640 -560
WIRE 864 -432 864 -528
WIRE 864 -432 848 -432
WIRE 80 -400 48 -400
WIRE 208 -400 176 -400
WIRE 912 -400 912 -496
WIRE 1056 -400 912 -400
WIRE 1168 -400 1168 -512
WIRE 1168 -400 1136 -400
WIRE 912 -384 912 -400
WIRE 48 -320 48 -400
WIRE 176 -320 176 -400
WIRE 640 -288 640 -368
WIRE 176 -224 176 -240
WIRE 1168 -208 1168 -400
WIRE 1168 -208 688 -208
WIRE 48 -176 48 -240
FLAG 176 -576 0
FLAG 80 -768 V-
FLAG 176 -768 V+
FLAG 1600 -608 0
FLAG 1392 -400 0
FLAG 1392 -800 V+
FLAG 1712 -688 OUT
FLAG 80 -576 0
FLAG 384 -512 IN
FLAG 544 -368 0
FLAG 640 -192 0
FLAG 912 -304 0
FLAG 912 -720 V+
FLAG 1184 -512 FREQ
FLAG 768 -592 V+
FLAG 1568 -784 V+
FLAG 1056 -576 V+
FLAG 752 -480 0
FLAG 1040 -464 0
FLAG 1504 -720 FREQ
FLAG 176 -224 0
FLAG 48 -176 0
FLAG 848 -432 INTEGRATE
FLAG 1568 -576 V-
FLAG 208 -400 IN
SYMBOL voltage 48 -336 R0
WINDOW 123 0 0 Left 2
WINDOW 39 0 0 Left 2
WINDOW 3 -33 215 Left 2
SYMATTR Value PULSE(.1 5 0 .1 0 0 .1 1)
SYMATTR InstName Vpulse
SYMBOL res 544 -576 R90
WINDOW 0 0 56 VBottom 2
WINDOW 3 32 56 VTop 2
SYMATTR InstName R1
SYMATTR Value {RB}
SYMBOL res 624 -464 R0
SYMATTR InstName R4
SYMATTR Value {RD}
SYMBOL cap 704 -704 R90
WINDOW 0 0 32 VBottom 2
WINDOW 3 32 32 VTop 2
SYMATTR InstName C1
SYMATTR Value {CI}
SYMBOL nmos 688 -288 M0
SYMATTR InstName FEEDBACK
SYMATTR Value FDC637AN
SYMBOL res 896 -736 R0
WINDOW 0 42 43 Left 2
SYMATTR InstName R5
SYMATTR Value 100k
SYMBOL res 896 -400 R0
SYMATTR InstName R6
SYMATTR Value 100k
SYMBOL res 1152 -416 R90
WINDOW 0 0 56 VBottom 2
WINDOW 3 32 56 VTop 2
SYMATTR InstName R7
SYMATTR Value 100k
SYMBOL voltage 176 -720 R0
WINDOW 123 0 0 Left 2
WINDOW 39 0 0 Left 2
SYMATTR InstName V+
SYMATTR Value 5
SYMBOL Opamps\\LT6236 1552 -688 R0
SYMATTR InstName U1
SYMBOL voltage 80 -608 R180
WINDOW 0 24 96 Left 2
WINDOW 3 24 16 Left 2
WINDOW 123 0 0 Left 2
WINDOW 39 0 0 Left 2
SYMATTR InstName V-
SYMATTR Value 5
SYMBOL res 1664 -528 R90
WINDOW 0 0 56 VBottom 2
WINDOW 3 32 56 VTop 2
SYMATTR InstName R8
SYMATTR Value 45k
SYMBOL res 1408 -384 R180
WINDOW 0 36 76 Left 2
WINDOW 3 36 40 Left 2
SYMATTR InstName R9
SYMATTR Value 5k
SYMBOL res 1408 -816 M0
SYMATTR InstName R10
SYMATTR Value 5k
SYMBOL res 544 -480 R90
WINDOW 0 0 56 VBottom 2
WINDOW 3 32 56 VTop 2
SYMATTR InstName R2
SYMATTR Value 49.9k
SYMBOL res 528 -464 R0
SYMATTR InstName R3
SYMATTR Value 49.9k
SYMBOL voltage 176 -336 R0
WINDOW 3 -15 152 Left 2
WINDOW 123 0 0 Left 2
WINDOW 39 0 0 Left 2
SYMATTR Value {VP}
SYMATTR InstName Vprog
SYMBOL Opamps\\LTC6241 752 -528 R0
SYMATTR InstName U2
SYMBOL Opamps\\LTC6241 1040 -512 R0
SYMATTR InstName U3
TEXT 1344 -272 Left 2 !.tran 30ms\n.param RD table(X, 1, 10k, 2, 49.9k)\n.param RB table(X, 1, 20k, 2, 100k)\n.param CI table(X, 1, 2n, 2, 10n)\n* .step param VP list .1 5\n.param VP 1\n.step param X list 1 2
TEXT 1632 -360 Left 2 ;Output Buffer
TEXT 120 -488 Left 2 ;Power Supplies
TEXT 944 -152 Left 2 ;Voltage Controlled Oscillator
TEXT 232 -72 Left 2 ;Input
TEXT 1592 -88 Left 2 ;SPICE Directives
RECTANGLE Normal 1792 -336 1312 -864 2
RECTANGLE Normal 304 -464 -64 -864 2
RECTANGLE Normal 304 -48 -64 -432 2
RECTANGLE Normal 336 -784 1280 -128 2
RECTANGLE Normal 1792 -64 1312 -304 2
